<?xml version="1.0" encoding="UTF-8"?>

<!-- generated on 2022-05-25 10:27:51 by Eclipse SUMO polyconvert Version 1.12.0
<configuration xmlns:xsi="http://www.w3.org/2001/XMLSchema-instance" xsi:noNamespaceSchemaLocation="http://sumo.dlr.de/xsd/polyconvertConfiguration.xsd">

    <input>
        <net-file value="osm.net.xml"/>
        <osm-files value="osm_bbox.osm.xml"/>
        <osm.keep-full-type value="true"/>
        <type-file value="/opt/homebrew/opt/sumo/share/sumo/data/typemap/osmPolyconvert.typ.xml"/>
    </input>

    <output>
        <output-file value="osm.poly.xml"/>
    </output>

    <processing>
        <poi-layer-offset value="5"/>
    </processing>

    <report>
        <verbose value="true"/>
    </report>

</configuration>
-->

<additional xmlns:xsi="http://www.w3.org/2001/XMLSchema-instance" xsi:noNamespaceSchemaLocation="http://sumo.dlr.de/xsd/additional_file.xsd">
    <location netOffset="-722517.98,-3760680.74" convBoundary="-23904.10,-350.84,8869.16,14906.78" origBoundary="71.153077,33.959221,71.504165,34.102255" projParameter="+proj=utm +zone=42 +ellps=WGS84 +datum=WGS84 +units=m +no_defs"/>

    <poly id="1033170310" type="amenity.parking" color="184,184,179" fill="1" layer="-1.00" shape="1382.812591,4103.350236 1399.428871,4105.030971 1403.343797,4077.878644 1386.244900,4075.498419 1382.812591,4103.350236"/>
    <poly id="1033170940" type="amenity.parking" color="184,184,179" fill="1" layer="-1.00" shape="1428.311222,4043.844775 1435.702580,4045.540190 1442.941495,3993.951611 1434.688470,3993.512033 1428.311222,4043.844775"/>
    <poly id="1033171352" type="amenity.parking" color="184,184,179" fill="1" layer="-1.00" shape="1454.425588,4036.716920 1462.521664,4038.318067 1467.422423,3995.696612 1460.843014,3994.841638 1458.598754,3999.837976 1454.425588,4036.716920"/>
    <poly id="1033171650" type="amenity.parking" color="184,184,179" fill="1" layer="-1.00" shape="1417.670175,4119.668015 1427.106684,4120.868063 1431.896356,4073.172288 1424.920818,4072.263564 1423.318233,4072.802702 1417.670175,4119.668015"/>
    <poly id="1033173838" type="amenity.parking" color="184,184,179" fill="1" layer="-1.00" shape="1363.183285,4100.488429 1367.921865,4101.011220 1381.921959,3988.700345 1382.834443,3978.267853 1378.602533,3977.424121 1363.183285,4100.488429"/>
    <poly id="1033173839" type="amenity.parking" color="184,184,179" fill="1" layer="-1.00" shape="1257.539525,4120.205901 1279.774693,4117.236245 1286.477104,4100.781508 1261.574814,4098.105872 1257.539525,4120.205901"/>
    <poly id="106410886" type="waterway.drain" color="181,209,209" fill="0" layer="-4.00" shape="2349.699879,3697.136342 2399.516575,3696.234380 2537.705223,3748.041152 2698.218938,3728.278708 3164.864130,3622.917450 3212.621291,3616.166374 3290.870242,3604.527831 3392.794921,3583.511577 3490.557574,3544.817801 3578.872467,3545.629815 3663.960502,3558.073841 3757.848868,3572.049815 3933.171707,3593.902218 4034.130963,3606.341172 4077.468547,3613.571905 4123.496187,3631.599062 4211.075897,3662.685882 4259.425342,3679.470923 4308.970753,3686.851588 4499.587061,3707.272500"/>
    <poly id="273260153" type="building.university" color="255,230,230" fill="1" layer="-1.00" shape="2385.433541,2907.897413 2414.232960,2906.595525 2412.680777,2876.228242 2383.615152,2876.669281 2385.433541,2907.897413"/>
    <poly id="273260341" type="building.university" color="255,230,230" fill="1" layer="-1.00" shape="2435.314808,2894.345326 2429.046447,2894.762283 2429.906765,2906.402171 2509.181477,2902.338840 2508.880894,2891.267141 2502.030193,2891.681298 2501.406049,2870.114444 2493.139357,2870.206389 2493.274147,2864.538597 2489.858290,2864.734809 2489.642606,2849.703204 2444.585188,2852.038830 2445.105019,2865.945681 2442.259349,2865.878021 2442.084241,2873.242821 2434.383793,2873.625726 2435.314808,2894.345326"/>
    <poly id="273260691" type="amenity.university" color="237,199,199" fill="1" layer="-2.00" shape="2362.619761,2968.126865 2420.206348,2965.245327 2514.666456,2960.511020 2512.501091,2827.673821 2359.736066,2833.918853 2356.388473,2839.021976 2361.262064,2940.072571 2362.619761,2968.126865"/>
    <poly id="433078671" type="amenity.doctors" color="237,199,199" fill="1" layer="-1.00" shape="1876.349953,1321.235740 1805.472388,1323.917333 1805.950583,1373.968429 1876.332540,1371.896594 1876.349953,1321.235740"/>
    <poly id="442737794" type="amenity.place_of_worship" color="237,199,199" fill="1" layer="-1.00" shape="2397.732711,1669.584049 2432.034596,1666.048847 2435.259605,1705.411755 2400.598382,1698.395474 2397.732711,1669.584049"/>
    <poly id="442737794#1" type="building.yes" color="255,230,230" fill="1" layer="-1.00" shape="2397.732711,1669.584049 2432.034596,1666.048847 2435.259605,1705.411755 2400.598382,1698.395474 2397.732711,1669.584049"/>
    <poly id="442737999" type="amenity.marketplace" color="237,199,199" fill="1" layer="-1.00" shape="2442.405718,1703.106780 2435.940627,1673.255376 2452.737147,1649.250481 2482.631541,1647.552819 2485.760142,1725.578268 2462.392955,1723.790962 2462.265058,1712.445953 2442.405718,1703.106780"/>
    <poly id="442738050" type="leisure.playground" color="207,245,201" fill="1" layer="-2.00" shape="2441.612800,1767.200017 2440.405940,1735.120841 2477.788366,1732.668938 2482.873712,1767.270749 2441.612800,1767.200017"/>
    <poly id="444298156" type="building.yes" color="255,230,230" fill="1" layer="-1.00" shape="1817.642029,1406.539954 1820.041212,1432.487874 1878.443853,1425.193693 1880.827444,1406.938892 1817.642029,1406.539954"/>
    <poly id="444298156#1" type="shop.car_repair" color="237,199,255" fill="1" layer="-1.00" shape="1817.642029,1406.539954 1820.041212,1432.487874 1878.443853,1425.193693 1880.827444,1406.938892 1817.642029,1406.539954"/>
    <poly id="448257017" type="landuse.residential" color="235,235,227" fill="1" layer="-3.00" shape="427.407372,4009.887990 461.742486,4004.527110 462.852502,4009.980047 479.027594,4007.642478 478.265864,3998.002827 472.014877,4000.074980 450.170153,3895.918733 404.840930,3904.960226 427.407372,4009.887990"/>
    <poly id="451764280" type="landuse.residential" color="235,235,227" fill="1" layer="-3.00" shape="2429.407383,2179.970763 2752.691738,2165.908774 2750.640242,1876.106212 2504.103697,1893.558174 2510.736491,2056.321223 2424.489104,2059.775432 2427.283431,2128.137840 2428.483196,2157.398020 2429.407383,2179.970763"/>
    <poly id="73347363" type="waterway.canal" color="181,209,209" fill="0" layer="-4.00" shape="3477.762126,-350.841715 3399.073164,-331.810500 3347.274643,-323.168734 3264.877407,-321.182389 3230.243665,-320.343226 3080.225650,-316.692835 2852.976013,-311.249060 2775.204661,-310.491247 2674.472666,-307.826107 2562.079112,-306.302655 2524.292518,-304.692416 2488.962775,-298.673333 2454.968754,-287.373147 2423.698105,-276.263416 2392.495824,-258.293540 2367.761424,-239.315473 2338.561031,-212.563958 2300.929489,-172.273460 2231.774842,-100.835955 2056.985608,73.758234 2002.066804,130.719267 1986.133529,147.909270 1973.532119,162.636893 1904.443509,231.103819 1817.159191,313.966686 1746.990163,386.370900 1695.097494,441.429734 1654.428275,482.926745 1628.801685,517.866098 1609.975378,558.892649 1579.500212,713.539422 1569.648160,752.803035 1527.394608,945.336218 1501.902399,1058.284859 1466.261740,1180.870399 1381.573908,1448.430563 1347.970485,1544.796294 1317.719863,1631.553088 1280.899225,1720.529513 1107.019490,2090.356840 1102.308113,2100.377719 925.497771,2489.148649 753.209432,2855.300676 658.041268,3063.334238 619.417367,3145.345062 571.476643,3201.467366 384.189032,3405.344743 103.581200,3697.851626 75.016931,3731.726344 57.177328,3773.755018 48.174008,3818.943612 34.755563,4010.128795 5.483012,4411.185893 -16.499318,4502.457295 -76.953458,4672.515838"/>
    <poly id="819455748" type="building.yes" color="255,230,230" fill="1" layer="-1.00" shape="2446.465458,3659.673661 2446.193370,3645.073516 2430.564865,3645.356609 2430.836714,3659.967845 2446.465458,3659.673661"/>
    <poly id="819455750" type="building.yes" color="255,230,230" fill="1" layer="-1.00" shape="2462.739128,3665.687326 2493.690953,3665.125113 2493.602482,3660.295441 2502.434139,3660.128206 2502.459754,3661.382874 2516.109376,3661.130506 2515.834225,3646.275027 2511.774596,3646.344915 2511.471181,3629.957260 2498.487475,3630.192185 2498.799887,3646.591150 2489.922025,3646.757290 2489.844908,3642.615955 2489.595857,3628.992963 2476.908047,3629.223858 2440.768068,3629.884704 2441.026427,3643.507911 2449.034821,3643.365438 2449.396460,3663.139313 2433.416397,3663.436234 2433.663142,3676.770621 2449.652157,3676.485013 2449.713176,3679.749232 2463.002203,3679.499312 2462.739128,3665.687326"/>
    <poly id="819455752" type="building.apartments" color="255,230,230" fill="1" layer="-1.00" shape="2445.355020,3398.914383 2546.855751,3394.914147 2545.651340,3364.721521 2444.150288,3368.721787 2445.355020,3398.914383"/>
    <poly id="819455753" type="building.apartments" color="255,230,230" fill="1" layer="-1.00" shape="2483.266963,3410.458878 2483.047816,3406.070015 2468.925084,3406.766217 2468.793328,3404.143991 2435.504091,3405.782746 2435.635593,3408.416062 2435.855025,3412.793832 2423.360952,3413.417852 2424.757849,3441.362150 2546.142796,3435.371065 2544.746517,3407.415640 2483.266963,3410.458878"/>
    <poly id="819455756" type="building.yes" color="255,230,230" fill="1" layer="-1.00" shape="2430.030538,3532.556464 2433.712867,3617.542576 2515.332737,3615.288976 2514.504204,3585.615793 2479.438089,3586.590595 2482.612426,3586.044621 2485.476340,3584.559044 2487.731033,3582.259930 2489.158216,3579.386241 2489.622217,3576.201096 2489.078167,3573.036364 2487.583610,3570.193057 2485.270528,3567.951759 2482.383347,3566.529146 2479.187083,3566.053597 2476.012740,3566.599572 2473.148823,3568.085153 2470.894130,3570.384269 2469.466688,3573.269053 2469.002958,3576.443107 2468.874811,3586.883138 2466.099836,3586.961408 2465.006978,3561.787682 2462.110576,3561.918555 2460.778736,3531.245713 2430.030538,3532.556464"/>
    <poly id="819455757" type="building.roof" color="255,230,230" fill="1" layer="-1.00" shape="2421.672120,3508.541722 2464.357401,3507.093121 2464.174667,3501.950470 2421.498602,3503.399293 2421.672120,3508.541722"/>
    <poly id="819455758" type="building.roof" color="255,230,230" fill="1" layer="-1.00" shape="2441.606079,3496.308722 2452.774980,3496.208110 2452.684031,3486.817167 2455.929411,3486.783372 2455.838469,3477.780853 2441.424163,3477.915261 2441.606079,3496.308722"/>
    <poly id="819455759" type="building.roof" color="255,230,230" fill="1" layer="-1.00" shape="2424.811160,3496.652888 2435.980323,3496.541165 2435.798396,3478.147705 2424.629211,3478.259429 2424.811160,3496.652888"/>
    <poly id="819455760" type="building.apartments" color="255,230,230" fill="1" layer="-1.00" shape="2483.229521,3453.617529 2427.533122,3454.878733 2427.857526,3468.836440 2473.500402,3467.802231 2473.681318,3475.353073 2468.095140,3475.475460 2465.430737,3475.955885 2463.096298,3477.331987 2461.364489,3479.410488 2460.453603,3481.952427 2460.472648,3484.649658 2461.420037,3487.180304 2463.173813,3489.230726 2465.536269,3490.563166 2468.206224,3491.015093 2470.870622,3490.534669 2473.214035,3489.169881 2474.023057,3488.190316 2488.451075,3487.867622 2488.715699,3499.282508 2505.289690,3498.899907 2504.942431,3483.965033 2506.746066,3483.919155 2505.980240,3450.829334 2483.172740,3451.341119 2483.229521,3453.617529"/>
    <poly id="906519844" type="amenity.bus_station" color="237,199,199" fill="1" layer="-1.00" shape="1396.684720,3968.341411 1398.277470,3958.457718 1502.050419,3981.135235 1500.221489,3990.058916 1396.684720,3968.341411"/>
    <poly id="906519844#1" type="building.yes" color="255,230,230" fill="1" layer="-1.00" shape="1396.684720,3968.341411 1398.277470,3958.457718 1502.050419,3981.135235 1500.221489,3990.058916 1396.684720,3968.341411"/>
    <poly id="984701615" type="building.gated" color="255,230,230" fill="1" layer="-1.00" shape="1336.994446,1651.196857 1307.924651,1721.656852 1296.068962,1747.200886 1361.782395,1806.341064 1401.013166,1824.981067 1415.664959,1717.213669 1438.258051,1561.026145 1407.313120,1564.932893 1421.015769,1484.787483 1389.699970,1483.647168 1378.347393,1560.996077 1363.001318,1559.756382 1336.994446,1651.196857"/>
    <poly id="984705004" type="amenity.marketplace" color="237,199,199" fill="1" layer="-1.00" shape="1641.180931,1610.975048 1760.931750,1597.220557 1771.903794,1519.285768 1649.314653,1535.336797 1641.180931,1610.975048"/>
    <poly id="985378110" type="landuse.residential" color="235,235,227" fill="1" layer="-3.00" shape="1327.193063,1747.026893 1322.803383,1724.272640 1408.835097,1711.636397 1411.275360,1733.933967 1327.193063,1747.026893"/>
    <poly id="985407422" type="landuse.residential" color="235,235,227" fill="1" layer="-3.00" shape="1350.217907,1683.149192 1346.554292,1664.096543 1414.680570,1655.653501 1414.332190,1674.677855 1350.217907,1683.149192"/>
    <poly id="985407653" type="landuse.residential" color="235,235,227" fill="1" layer="-3.00" shape="1408.552566,1704.038869 1336.412611,1713.718730 1332.754496,1694.433166 1409.628036,1685.153792 1408.552566,1704.038869"/>
    <poly id="985407945" type="landuse.residential" color="235,235,227" fill="1" layer="-3.00" shape="1364.506287,1651.703276 1361.389174,1632.608060 1422.250157,1624.104194 1420.490151,1643.394789 1364.506287,1651.703276"/>
    <poly id="985408108" type="landuse.residential" color="235,235,227" fill="1" layer="-3.00" shape="1365.850129,1623.813202 1366.676133,1602.181091 1424.172691,1596.771595 1423.507054,1618.263235 1365.850129,1623.813202"/>
    <poly id="985408488" type="landuse.residential" color="235,235,227" fill="1" layer="-3.00" shape="1372.974161,1593.895792 1371.557938,1574.030671 1427.142918,1570.096355 1428.568005,1589.972800 1372.974161,1593.895792"/>
    <poly id="985409230" type="landuse.residential" color="235,235,227" fill="1" layer="-3.00" shape="1384.132151,1561.121810 1407.176250,1560.557153 1413.739473,1503.936478 1415.425171,1489.349561 1393.284077,1488.082253 1384.132151,1561.121810"/>
    <poly id="985545882" type="leisure.garden" color="207,245,201" fill="1" layer="-2.00" shape="2196.911201,1658.233282 2215.105175,1658.287911 2204.501401,1375.508600 2190.492051,1374.809813 2196.911201,1658.233282"/>
    <poly id="985546662" type="building.mosque" color="255,230,230" fill="1" layer="-1.00" shape="2146.365184,1744.339728 2154.591259,1718.344201 2199.887254,1729.152250 2200.366316,1757.651663 2162.807913,1753.896802 2146.365184,1744.339728"/>
    <poly id="994200922" type="amenity.parking" color="184,184,179" fill="1" layer="-1.00" shape="2362.619761,2968.126865 2420.206348,2965.245327 2419.518255,2937.029366 2361.262064,2940.072571 2362.619761,2968.126865"/>
    <poly id="996244627" type="amenity.hospital" color="237,199,199" fill="1" layer="-1.00" shape="2424.193411,3330.592239 2559.090517,3325.932421 2558.876965,3246.710852 2462.400804,3250.042624 2439.226188,3250.812168 2439.353227,3254.410891 2420.878272,3255.025886 2424.193411,3330.592239"/>
    <poi id="1224404628" type="amenity.school" color="237,199,199" layer="3.00" x="2303.41" y="2893.50"/>
    <poi id="1224404638" type="amenity.school" color="237,199,199" layer="3.00" x="2398.12" y="2927.40"/>
    <poi id="2412845548" type="amenity.place_of_worship" color="237,199,199" layer="4.00" x="1742.54" y="1353.98"/>
    <poi id="2739071978" type="amenity.marketplace" color="237,199,199" layer="4.00" x="2466.18" y="1672.07"/>
    <poi id="2739077330" type="amenity.marketplace" color="237,199,199" layer="4.00" x="1367.08" y="3979.89"/>
    <poi id="4207695590" type="historic.castle" color="128,255,128" layer="4.00" x="559.14" y="3961.31"/>
    <poi id="4319803097" type="shop.car_repair" color="237,199,255" layer="4.00" x="1821.98" y="1395.64"/>
    <poi id="4396332389" type="amenity.bank" color="237,199,199" layer="4.00" x="1882.58" y="1331.53"/>
    <poi id="4403994394" type="man_made.water_tower" color="255,230,230" layer="4.00" x="2442.82" y="1718.84"/>
    <poi id="4403995940" type="shop.bakery" color="237,199,255" layer="4.00" x="2453.70" y="1698.02"/>
    <poi id="4403995941" type="shop.convenience" color="237,199,255" layer="4.00" x="2461.24" y="1698.49"/>
    <poi id="4403995942" type="amenity.pharmacy" color="237,199,199" layer="4.00" x="2453.24" y="1681.75"/>
    <poi id="4409190891" type="amenity.car_rental" color="237,199,199" layer="4.00" x="2480.19" y="1639.57"/>
    <poi id="4411351391" type="amenity.place_of_worship" color="237,199,199" layer="4.00" x="1438.09" y="3819.60"/>
    <poi id="4411351391#1" type="building.mosque" color="255,230,230" layer="4.00" x="1438.09" y="3819.60"/>
    <poi id="4433067993" type="tourism.attraction" color="207,245,201" layer="3.00" x="570.91" y="3917.62"/>
    <poi id="4452847551" type="leisure.garden" color="207,245,201" layer="3.00" x="443.62" y="3974.24"/>
    <poi id="4457978905" type="amenity.police" color="237,199,199" layer="4.00" x="2083.90" y="1390.48"/>
    <poi id="4472730521" type="amenity.police" color="237,199,199" layer="4.00" x="1274.25" y="3729.74"/>
    <poi id="4535626290" type="amenity.atm" color="237,199,199" layer="4.00" x="1878.27" y="1331.59"/>
    <poi id="4989801522" type="amenity.atm" color="237,199,199" layer="4.00" x="1544.39" y="4011.84"/>
    <poi id="9103547400" type="amenity.place_of_worship" color="237,199,199" layer="4.00" x="1336.38" y="1764.02"/>
    <poi id="9103547401" type="shop.convenience" color="237,199,255" layer="4.00" x="1342.27" y="1648.80"/>
    <poi id="9103645324" type="amenity.social_centre" color="237,199,199" layer="4.00" x="1388.73" y="1797.32"/>
    <poi id="9103689740" type="man_made.storage_tank" color="255,230,230" layer="4.00" x="1356.75" y="1790.25"/>
    <poi id="9103696287" type="leisure.garden" color="207,245,201" layer="3.00" x="1368.21" y="1766.84"/>
    <poi id="9103747711" type="shop.convenience" color="237,199,255" layer="4.00" x="1348.41" y="1642.89"/>
    <poi id="9103772088" type="amenity.waste_disposal" color="237,199,199" layer="4.00" x="1349.69" y="1615.20"/>
    <poi id="9103781230" type="building.yes" color="255,230,230" layer="4.00" x="1347.58" y="1627.17"/>
    <poi id="9103782781" type="amenity.waste_disposal" color="237,199,199" layer="4.00" x="1330.80" y="1671.46"/>
    <poi id="9103795929" type="shop.bakery" color="237,199,255" layer="4.00" x="1344.43" y="1641.52"/>
    <poi id="9103801601" type="amenity.waste_disposal" color="237,199,199" layer="4.00" x="1313.94" y="1714.31"/>
    <poi id="9103938652" type="leisure.playground" color="207,245,201" layer="3.00" x="1788.42" y="1346.90"/>
    <poi id="9104578267" type="amenity.marketplace" color="237,199,199" layer="4.00" x="1799.05" y="1405.08"/>
    <poi id="9104637119" type="shop.yes" color="237,199,255" layer="4.00" x="2029.18" y="1582.26"/>
    <poi id="9104638306" type="shop.car_repair" color="237,199,255" layer="4.00" x="2039.14" y="1581.75"/>
    <poi id="9106516943" type="amenity.marketplace" color="237,199,199" layer="4.00" x="2450.77" y="1704.19"/>
    <poi id="9106521269" type="amenity.marketplace" color="237,199,199" layer="4.00" x="2335.22" y="1995.67"/>
    <poi id="9106554734" type="leisure.park" color="207,245,201" layer="3.00" x="2342.31" y="2053.42"/>
    <poi id="9111010682" type="man_made.works" color="255,230,230" layer="4.00" x="2028.31" y="1554.30"/>
    <poi id="9111038333" type="man_made.works" color="255,230,230" layer="4.00" x="2045.55" y="1467.45"/>
    <poi id="9111056543" type="man_made.works" color="255,230,230" layer="4.00" x="1017.04" y="3474.58"/>
    <poi id="9111088934" type="amenity.post_office" color="237,199,199" layer="4.00" x="1331.25" y="3628.65"/>
    <poi id="9111268287" type="amenity.school" color="237,199,199" layer="3.00" x="2014.96" y="2977.86"/>
    <poi id="9111271861" type="man_made.works" color="255,230,230" layer="4.00" x="1403.06" y="2101.84"/>
    <poi id="9111321610" type="man_made.works" color="255,230,230" layer="4.00" x="1390.72" y="3397.84"/>
    <poi id="9111515640" type="shop.beverages" color="237,199,255" layer="4.00" x="1268.43" y="3261.16"/>
    <poi id="9111518597" type="man_made.works" color="255,230,230" layer="4.00" x="1590.60" y="3505.02"/>
    <poi id="9111546550" type="man_made.works" color="255,230,230" layer="4.00" x="1645.67" y="2757.85"/>
    <poi id="9111548791" type="amenity.bank" color="237,199,199" layer="4.00" x="1471.01" y="4057.62"/>
    <poi id="9111561695" type="man_made.works" color="255,230,230" layer="4.00" x="1260.04" y="3675.00"/>
    <poi id="9111567728" type="amenity.bank" color="237,199,199" layer="4.00" x="1331.04" y="3595.40"/>
    <poi id="9111573277" type="amenity.community_centre" color="237,199,199" layer="4.00" x="1747.93" y="1538.07"/>
    <poi id="9112561900" type="amenity.marketplace" color="237,199,199" layer="4.00" x="2417.28" y="2639.00"/>
    <poi id="9112678917" type="amenity.marketplace" color="237,199,199" layer="4.00" x="2360.92" y="2339.19"/>
    <poi id="9112726874" type="amenity.marketplace" color="237,199,199" layer="4.00" x="1438.12" y="3987.41"/>
    <poi id="9112740483" type="amenity.marketplace" color="237,199,199" layer="4.00" x="1295.15" y="3979.37"/>
    <poi id="9112750691" type="amenity.marketplace" color="237,199,199" layer="4.00" x="1334.06" y="3974.36"/>
    <poi id="9112761833" type="amenity.marketplace" color="237,199,199" layer="4.00" x="1748.00" y="4064.18"/>
    <poi id="9112767823" type="amenity.marketplace" color="237,199,199" layer="4.00" x="1263.01" y="3967.18"/>
    <poi id="9112781826" type="amenity.marketplace" color="237,199,199" layer="4.00" x="1401.42" y="4048.35"/>
    <poi id="9112781941" type="amenity.marketplace" color="237,199,199" layer="4.00" x="1461.76" y="4001.94"/>
    <poi id="9112786260" type="amenity.marketplace" color="237,199,199" layer="4.00" x="1164.88" y="3971.63"/>
    <poi id="9112787241" type="amenity.marketplace" color="237,199,199" layer="4.00" x="1661.76" y="4102.78"/>
    <poi id="9112797649" type="amenity.marketplace" color="237,199,199" layer="4.00" x="1586.60" y="4030.73"/>
    <poi id="9112895348" type="amenity.bank" color="237,199,199" layer="4.00" x="2069.33" y="3183.19"/>
    <poi id="9112942246" type="amenity.school" color="237,199,199" layer="3.00" x="1702.49" y="1431.16"/>
</additional>
