<?xml version="1.0" encoding="UTF-8"?>
<!-- generated on 2022-05-25 10:27:52.439779 by osmWebWizard.py UNKNOWN
  options: 
-->
<routes xmlns:xsi="http://www.w3.org/2001/XMLSchema-instance" xsi:noNamespaceSchemaLocation="http://sumo.dlr.de/xsd/routes_file.xsd">
    <vType id="ped_pedestrian" vClass="pedestrian"/>
    <person id="ped0" depart="0.00" type="ped_pedestrian">
        <walk from="253335362#1" to="-1027004110#6"/>     <!--here are the pedestrians generated for random traffic that are not travelling on any bus-->
    </person>
    <person id="ped1" depart="1.45" type="ped_pedestrian">
        <walk from="-33774334#4" to="-26608458#3"/>
    </person>
    <person id="ped2" depart="2.90" type="ped_pedestrian">
        <walk from="27381036#12" to="253337924"/>
    </person>
    <person id="ped3" depart="4.35" type="ped_pedestrian">
        <walk from="-75641025#4" to="-1027004113#1"/>
    </person>
    <person id="ped4" depart="5.80" type="ped_pedestrian">
        <walk from="-26608458#1" to="1027004108"/> <!-- the edges define the route of the passenger and the depart time indicates the time to leave where type is used to 
                                                        identify that there is a pedestrian-->
    </person>
    <person id="ped5" depart="7.25" type="ped_pedestrian">
        <walk from="-1027004110#7" to="-253337931#2"/>
    </person>
    <person id="ped6" depart="8.71" type="ped_pedestrian">
        <walk from="253337912#1" to="1029541256#2"/>
    </person>
    <person id="ped7" depart="10.16" type="ped_pedestrian">
        <walk from="-26608458#2" to="1041426282"/>
    </person>
    <person id="ped8" depart="11.61" type="ped_pedestrian">
        <walk from="676091382#7" to="-1027004107"/>
    </person>
    <person id="ped9" depart="13.06" type="ped_pedestrian">
        <walk from="-709064040#3" to="-253337914#2"/>
    </person>
    <person id="ped10" depart="14.51" type="ped_pedestrian">
        <walk from="765770411#1" to="-709064040#1"/>
    </person>
    <person id="ped11" depart="15.96" type="ped_pedestrian">
        <walk from="-1041427056" to="-1046188457"/>
    </person>
    <person id="ped12" depart="17.41" type="ped_pedestrian">
        <walk from="709064357" to="232960172#0"/>
    </person>
    <person id="ped13" depart="18.86" type="ped_pedestrian">
        <walk from="676091382#6" to="27381036#0"/>
    </person>
    <person id="ped14" depart="20.31" type="ped_pedestrian">
        <walk from="73345341#0" to="1038784017#2"/>
    </person>
    <person id="ped15" depart="21.76" type="ped_pedestrian">
        <walk from="253337941" to="-1029541252"/>
    </person>
    <person id="ped16" depart="23.21" type="ped_pedestrian">
        <walk from="-27381036#1" to="-639202040"/>
    </person>
    <person id="ped17" depart="24.67" type="ped_pedestrian">
        <walk from="-1038784017#2" to="-27381036#11"/>
    </person>
    <person id="ped18" depart="26.12" type="ped_pedestrian">
        <walk from="-116187649#1" to="-33774334#6"/>
    </person>
    <person id="ped19" depart="27.57" type="ped_pedestrian">
        <walk from="253337912#0" to="253335348"/>
    </person>
    <person id="ped20" depart="29.02" type="ped_pedestrian">
        <walk from="-253337917#1" to="27381036#0"/>
    </person>
    <person id="ped21" depart="30.47" type="ped_pedestrian">
        <walk from="765770422#3" to="253335362#2"/>
    </person>
    <person id="ped22" depart="31.92" type="ped_pedestrian">
        <walk from="1029542936#5" to="253337928#0"/>
    </person>
    <person id="ped23" depart="33.37" type="ped_pedestrian">
        <walk from="709064040#1" to="33774334#2"/>
    </person>
    <person id="ped24" depart="34.82" type="ped_pedestrian">
        <walk from="-676091384#2" to="-309070523#5"/>
    </person>
    <person id="ped25" depart="36.27" type="ped_pedestrian">
        <walk from="-253337943#2" to="75653778#2"/>
    </person>
    <person id="ped26" depart="37.72" type="ped_pedestrian">
        <walk from="253337914#1" to="-75641021#17"/>
    </person>
    <person id="ped27" depart="39.17" type="ped_pedestrian">
        <walk from="-309070523#4" to="-28743486"/>
    </person>
    <person id="ped28" depart="40.63" type="ped_pedestrian">
        <walk from="1038784017#6" to="75641021#15"/>
    </person>
    <person id="ped29" depart="42.08" type="ped_pedestrian">
        <walk from="-75641021#2" to="-26608458#1"/>
    </person>
    <person id="ped30" depart="43.53" type="ped_pedestrian">
        <walk from="-1041426281" to="-1029541256#0"/>
    </person>
    <person id="ped31" depart="44.98" type="ped_pedestrian">
        <walk from="-253335346" to="253335355#1"/>
    </person>
    <person id="ped32" depart="46.43" type="ped_pedestrian">
        <walk from="598986030" to="-75641025#4"/>
    </person>
    <person id="ped33" depart="47.88" type="ped_pedestrian">
        <walk from="-1027004109#1" to="26608458#0"/>
    </person>
    <person id="ped34" depart="49.33" type="ped_pedestrian">
        <walk from="-765770412#0" to="765770411#0"/>
    </person>
    <person id="ped35" depart="50.78" type="ped_pedestrian">
        <walk from="73345341#7" to="-309070523#3"/>
    </person>
    <person id="ped36" depart="52.23" type="ped_pedestrian">
        <walk from="1026068296#2" to="-253337926"/>
    </person>
    <person id="ped37" depart="53.68" type="ped_pedestrian">
        <walk from="75641021#6" to="73345341#4"/>
    </person>
    <person id="ped38" depart="55.13" type="ped_pedestrian">
        <walk from="-676091382#4" to="253335362#1"/>
    </person>
    <person id="ped39" depart="56.59" type="ped_pedestrian">
        <walk from="253335348" to="-253337914#0"/>
    </person>
    <person id="ped40" depart="58.04" type="ped_pedestrian">
        <walk from="309070523#0" to="1027007287#4"/>
    </person>
    <person id="ped41" depart="59.49" type="ped_pedestrian">
        <walk from="33774334#4" to="1027004113#2"/>
    </person>
    <person id="ped42" depart="60.94" type="ped_pedestrian">
        <walk from="-1026068296#1" to="-676091384#7"/>
    </person>
    <person id="ped43" depart="62.39" type="ped_pedestrian">
        <walk from="-1027004110#3" to="75641025#5"/>
    </person>
    <person id="ped44" depart="63.84" type="ped_pedestrian">
        <walk from="75640992#0" to="676091384#8"/>
    </person>
    <person id="ped45" depart="65.29" type="ped_pedestrian">
        <walk from="-676091384#1" to="-1029542936#4"/>
    </person>
    <person id="ped46" depart="66.74" type="ped_pedestrian">
        <walk from="75640992#0" to="75658309#2"/>
    </person>
    <person id="ped47" depart="68.19" type="ped_pedestrian">
        <walk from="-1033814016#2" to="295005123#4"/>
    </person>
    <person id="ped48" depart="69.64" type="ped_pedestrian">
        <walk from="-765770419#2" to="1029542936#1"/>
    </person>
    <person id="ped49" depart="71.09" type="ped_pedestrian">
        <walk from="-309070523#4" to="73345341#5"/>
    </person>
    <person id="ped50" depart="72.55" type="ped_pedestrian">
        <walk from="-253337932" to="-676091384#11"/>
    </person>
    <person id="ped51" depart="74.00" type="ped_pedestrian">
        <walk from="983731282#1" to="253337912#1"/>
    </person>
    <person id="ped52" depart="75.45" type="ped_pedestrian">
        <walk from="-75653778#2" to="1027004110#5"/>
    </person>
    <person id="ped53" depart="76.90" type="ped_pedestrian">
        <walk from="-709064040#1" to="1041426282"/>
    </person>
    <person id="ped54" depart="78.35" type="ped_pedestrian">
        <walk from="-27381036#10" to="-26608458#2"/>
    </person>
    <person id="ped55" depart="79.80" type="ped_pedestrian">
        <walk from="709064558" to="-1033814016#3"/>
    </person>
    <person id="ped56" depart="81.25" type="ped_pedestrian">
        <walk from="-27381036#4" to="253337916#2"/>
    </person>
    <person id="ped57" depart="82.70" type="ped_pedestrian">
        <walk from="-253337944" to="-253335360#1"/>
    </person>
    <person id="ped58" depart="84.15" type="ped_pedestrian">
        <walk from="75653774#2" to="1034122132#0"/>
    </person>
    <person id="ped59" depart="85.60" type="ped_pedestrian">
        <walk from="-1046188457" to="-75653774#2"/>
    </person>
    <person id="ped60" depart="87.05" type="ped_pedestrian">
        <walk from="27381036#0" to="253337918"/>
    </person>
    <person id="ped61" depart="88.51" type="ped_pedestrian">
        <walk from="765770422#0" to="-116187649#0"/>
    </person>
    <person id="ped62" depart="89.96" type="ped_pedestrian">
        <walk from="-75641021#3" to="-709064040#2"/>
    </person>
    <person id="ped63" depart="91.41" type="ped_pedestrian">
        <walk from="-253337929#1" to="-765770410"/>
    </person>
    <person id="ped64" depart="92.86" type="ped_pedestrian">
        <walk from="-75641025#4" to="-33774334#6"/>
    </person>
    <person id="ped65" depart="94.31" type="ped_pedestrian">
        <walk from="-295005123#1" to="75641025#2"/>
    </person>
    <person id="ped66" depart="95.76" type="ped_pedestrian">
        <walk from="-75658309#2" to="709064558"/>
    </person>
    <person id="ped67" depart="97.21" type="ped_pedestrian">
        <walk from="1029542936#1" to="-1029542936#0"/>
    </person>
    <person id="ped68" depart="98.66" type="ped_pedestrian">
        <walk from="986731404" to="676091389#1"/>
    </person>
    <person id="ped69" depart="100.11" type="ped_pedestrian">
        <walk from="709064358#0" to="-253337916#1"/>
    </person>
    <person id="ped70" depart="101.56" type="ped_pedestrian">
        <walk from="-765770422#2" to="-253337944"/>
    </person>
    <person id="ped71" depart="103.01" type="ped_pedestrian">
        <walk from="-309070523#4" to="33774334#7"/>
    </person>
    <person id="ped72" depart="104.46" type="ped_pedestrian">
        <walk from="765770411#1" to="983731282#1"/>
    </person>
    <person id="ped73" depart="105.92" type="ped_pedestrian">
        <walk from="-253337914#1" to="-676091382#3"/>
    </person>
    <person id="ped74" depart="107.37" type="ped_pedestrian">
        <walk from="1029541252" to="27381036#8"/>
    </person>
    <person id="ped75" depart="108.82" type="ped_pedestrian">
        <walk from="1027004107" to="709064421"/>
    </person>
    <person id="ped76" depart="110.27" type="ped_pedestrian">
        <walk from="-253337915#0" to="765770412#1"/>
    </person>
    <person id="ped77" depart="111.72" type="ped_pedestrian">
        <walk from="1046188457" to="253337923"/>
    </person>
    <person id="ped78" depart="113.17" type="ped_pedestrian">
        <walk from="-27381036#3" to="-253335353"/>
    </person>
    <person id="ped79" depart="114.62" type="ped_pedestrian">
        <walk from="75641021#11" to="-28743486"/>
    </person>
    <person id="ped80" depart="116.07" type="ped_pedestrian">
        <walk from="1046188457" to="253335353"/>
    </person>
    <person id="ped81" depart="117.52" type="ped_pedestrian">
        <walk from="-75641025#2" to="1038784017#5"/>
    </person>
    <person id="ped82" depart="118.97" type="ped_pedestrian">
        <walk from="1027004110#7" to="75653774#1"/>
    </person>
    <person id="ped83" depart="120.42" type="ped_pedestrian">
        <walk from="-253337941" to="253337945"/>
    </person>
    <person id="ped84" depart="121.88" type="ped_pedestrian">
        <walk from="-27381036#5" to="-75641021#17"/>
    </person>
    <person id="ped85" depart="123.33" type="ped_pedestrian">
        <walk from="253337917#1" to="-676091382#5"/>
    </person>
    <person id="ped86" depart="124.78" type="ped_pedestrian">
        <walk from="-676091384#3" to="28743486"/>
    </person>
    <person id="ped87" depart="126.23" type="ped_pedestrian">
        <walk from="-1034122132#0" to="-765770412#2"/>
    </person>
    <person id="ped88" depart="127.68" type="ped_pedestrian">
        <walk from="-1034122132#0" to="-253337944"/>
    </person>
    <person id="ped89" depart="129.13" type="ped_pedestrian">
        <walk from="75640992#1" to="75640992#0"/>
    </person>
    <person id="ped90" depart="130.58" type="ped_pedestrian">
        <walk from="676091389#0" to="253337933"/>
    </person>
    <person id="ped91" depart="132.03" type="ped_pedestrian">
        <walk from="253335349" to="765770422#2"/>
    </person>
    <person id="ped92" depart="133.48" type="ped_pedestrian">
        <walk from="253337914#0" to="-1027004108"/>
    </person>
    <person id="ped93" depart="134.93" type="ped_pedestrian">
        <walk from="676091384#12" to="-676091382#4"/>
    </person>
    <person id="ped94" depart="136.38" type="ped_pedestrian">
        <walk from="253337915#2" to="75653774#3"/>
    </person>
    <person id="ped95" depart="137.84" type="ped_pedestrian">
        <walk from="-253335361" to="-253335350#0"/>
    </person>
    <person id="ped96" depart="139.29" type="ped_pedestrian">
        <walk from="-232960157#1" to="1029542936#3"/>
    </person>
    <person id="ped97" depart="140.74" type="ped_pedestrian">
        <walk from="-33774334#3" to="232960172#1"/>
    </person>
    <person id="ped98" depart="142.19" type="ped_pedestrian">
        <walk from="-930766187" to="75641021#2"/>
    </person>
    <person id="ped99" depart="143.64" type="ped_pedestrian">
        <walk from="709064040#3" to="-1041426281"/>
    </person>
    <person id="ped100" depart="145.09" type="ped_pedestrian">
        <walk from="-75641025#5" to="-33774334#5"/>
    </person>
    <person id="ped101" depart="146.54" type="ped_pedestrian">
        <walk from="27381036#4" to="1029542936#2"/>
    </person>
    <person id="ped102" depart="147.99" type="ped_pedestrian">
        <walk from="-75653774#0" to="-1027004109#0"/>
    </person>
    <person id="ped103" depart="149.44" type="ped_pedestrian">
        <walk from="-1034122132#2" to="75640992#2"/>
    </person>
    <person id="ped104" depart="150.89" type="ped_pedestrian">
        <walk from="676091389#0" to="1038784017#5"/>
    </person>
    <person id="ped105" depart="152.34" type="ped_pedestrian">
        <walk from="-253337912#1" to="-253335355#1"/>
    </person>
    <person id="ped106" depart="153.80" type="ped_pedestrian">
        <walk from="-676091384#1" to="75641021#16"/>
    </person>
    <person id="ped107" depart="155.25" type="ped_pedestrian">
        <walk from="676091382#0" to="709064558"/>
    </person>
    <person id="ped108" depart="156.70" type="ped_pedestrian">
        <walk from="33774334#5" to="75641021#0"/>
    </person>
    <person id="ped109" depart="158.15" type="ped_pedestrian">
        <walk from="-253337914#1" to="75641025#6"/>
    </person>
    <person id="ped110" depart="159.60" type="ped_pedestrian">
        <walk from="676091384#0" to="75640992#1"/>
    </person>
    <person id="ped111" depart="161.05" type="ped_pedestrian">
        <walk from="-1027004110#6" to="27381036#12"/>
    </person>
    <person id="ped112" depart="162.50" type="ped_pedestrian">
        <walk from="-676091389#1" to="75641025#6"/>
    </person>
    <person id="ped113" depart="163.95" type="ped_pedestrian">
        <walk from="676091384#0" to="-309070523#5"/>
    </person>
    <person id="ped114" depart="165.40" type="ped_pedestrian">
        <walk from="33774334#8" to="-232960172#0"/>
    </person>
    <person id="ped115" depart="166.85" type="ped_pedestrian">
        <walk from="-26608458#3" to="676091384#11"/>
    </person>
    <person id="ped116" depart="168.30" type="ped_pedestrian">
        <walk from="676091382#0" to="-27381036#1"/>
    </person>
    <person id="ped117" depart="169.76" type="ped_pedestrian">
        <walk from="-1027004110#5" to="-253337930"/>
    </person>
    <person id="ped118" depart="171.21" type="ped_pedestrian">
        <walk from="-676091384#9" to="73345341#1"/>
    </person>
    <person id="ped119" depart="172.66" type="ped_pedestrian">
        <walk from="765770416" to="-253337926"/>
    </person>
    <person id="ped120" depart="174.11" type="ped_pedestrian">
        <walk from="-232960172#0" to="-75653774#4"/>
    </person>
    <person id="ped121" depart="175.56" type="ped_pedestrian">
        <walk from="27381036#0" to="-676091384#12"/>
    </person>
    <person id="ped122" depart="177.01" type="ped_pedestrian">
        <walk from="232960172#1" to="1027004110#1"/>
    </person>
    <person id="ped123" depart="178.46" type="ped_pedestrian">
        <walk from="-75641021#11" to="1038784017#1"/>
    </person>
    <person id="ped124" depart="179.91" type="ped_pedestrian">
        <walk from="-1026068296#1" to="75641025#3"/>
    </person>
    <person id="ped125" depart="181.36" type="ped_pedestrian">
        <walk from="1027007287#4" to="26608458#0"/>
    </person>
    <person id="ped126" depart="182.81" type="ped_pedestrian">
        <walk from="27381036#4" to="253337917#0"/>
    </person>
    <person id="ped127" depart="184.26" type="ped_pedestrian">
        <walk from="-73345341#4" to="-1033814016#2"/>
    </person>
    <person id="ped128" depart="185.72" type="ped_pedestrian">
        <walk from="253337916#0" to="-676091389#0"/>
    </person>
    <person id="ped129" depart="187.17" type="ped_pedestrian">
        <walk from="-676091384#12" to="709064357"/>
    </person>
    <person id="ped130" depart="188.62" type="ped_pedestrian">
        <walk from="26608458#0" to="-676091382#5"/>
    </person>
    <person id="ped131" depart="190.07" type="ped_pedestrian">
        <walk from="-676091384#10" to="-75641021#6"/>
    </person>
    <person id="ped132" depart="191.52" type="ped_pedestrian">
        <walk from="-75641021#3" to="-676091382#2"/>
    </person>
    <person id="ped133" depart="192.97" type="ped_pedestrian">
        <walk from="75653774#4" to="253337924"/>
    </person>
    <person id="ped134" depart="194.42" type="ped_pedestrian">
        <walk from="-676091382#5" to="1029542936#0"/>
    </person>
    <person id="ped135" depart="195.87" type="ped_pedestrian">
        <walk from="-75653774#1" to="1038784017#3"/>
    </person>
    <person id="ped136" depart="197.32" type="ped_pedestrian">
        <walk from="253337914#1" to="-765770416"/>
    </person>
    <person id="ped137" depart="198.77" type="ped_pedestrian">
        <walk from="676091382#0" to="-253337917#0"/>
    </person>
    <person id="ped138" depart="200.22" type="ped_pedestrian">
        <walk from="-1038784017#4" to="1027004110#3"/>
    </person>
    <person id="ped139" depart="201.68" type="ped_pedestrian">
        <walk from="253335360#1" to="-703441613"/>
    </person>
    <person id="ped140" depart="203.13" type="ped_pedestrian">
        <walk from="-253337931#2" to="-1027004110#6"/>
    </person>
    <person id="ped141" depart="204.58" type="ped_pedestrian">
        <walk from="-27381036#9" to="-765770419#2"/>
    </person>
    <person id="ped142" depart="206.03" type="ped_pedestrian">
        <walk from="709064358#0" to="-1034122132#0"/>
    </person>
    <person id="ped143" depart="207.48" type="ped_pedestrian">
        <walk from="-253337931#0" to="253337931#0"/>
    </person>
    <person id="ped144" depart="208.93" type="ped_pedestrian">
        <walk from="253337914#1" to="-1026068296#3"/>
    </person>
    <person id="ped145" depart="210.38" type="ped_pedestrian">
        <walk from="28743486" to="309070523#4"/>
    </person>
    <person id="ped146" depart="211.83" type="ped_pedestrian">
        <walk from="-232960157#1" to="-75641025#6"/>
    </person>
    <person id="ped147" depart="213.28" type="ped_pedestrian">
        <walk from="-253337924" to="765770412#0"/>
    </person>
    <person id="ped148" depart="214.73" type="ped_pedestrian">
        <walk from="1027004110#5" to="-1029542936#0"/>
    </person>
    <person id="ped149" depart="216.18" type="ped_pedestrian">
        <walk from="-295005123#0" to="709064357"/>
    </person>
    <person id="ped150" depart="217.64" type="ped_pedestrian">
        <walk from="253337916#2" to="765770422#2"/>
    </person>
    <person id="ped151" depart="219.09" type="ped_pedestrian">
        <walk from="116187649#0" to="765770408"/>
    </person>
    <person id="ped152" depart="220.54" type="ped_pedestrian">
        <walk from="26608458#0" to="1027004108"/>
    </person>
    <person id="ped153" depart="221.99" type="ped_pedestrian">
        <walk from="676091384#8" to="1029542936#0"/>
    </person>
    <person id="ped154" depart="223.44" type="ped_pedestrian">
        <walk from="-1038784017#0" to="-598986026"/>
    </person>
    <person id="ped155" depart="224.89" type="ped_pedestrian">
        <walk from="-33774334#2" to="-676091384#4"/>
    </person>
    <person id="ped156" depart="226.34" type="ped_pedestrian">
        <walk from="-27381036#11" to="253337930"/>
    </person>
    <person id="ped157" depart="227.79" type="ped_pedestrian">
        <walk from="253337942" to="-1029542939"/>
    </person>
    <person id="ped158" depart="229.24" type="ped_pedestrian">
        <walk from="-75641025#3" to="75641021#2"/>
    </person>
    <person id="ped159" depart="230.69" type="ped_pedestrian">
        <walk from="709064421" to="765770410"/>
    </person>
    <person id="ped160" depart="232.14" type="ped_pedestrian">
        <walk from="-75641025#2" to="27381036#8"/>
    </person>
    <person id="ped161" depart="233.60" type="ped_pedestrian">
        <walk from="-26608458#2" to="-26608458#1"/>
    </person>
    <person id="ped162" depart="235.05" type="ped_pedestrian">
        <walk from="-75653774#4" to="-1027004113#0"/>
    </person>
    <person id="ped163" depart="236.50" type="ped_pedestrian">
        <walk from="-703441613" to="253337926"/>
    </person>
    <person id="ped164" depart="237.95" type="ped_pedestrian">
        <walk from="-765770417#0" to="-253335359"/>
    </person>
    <person id="ped165" depart="239.40" type="ped_pedestrian">
        <walk from="253335354#0" to="-1027004110#7"/>
    </person>
    <person id="ped166" depart="240.85" type="ped_pedestrian">
        <walk from="-75641021#16" to="1033814016#1"/>
    </person>
    <person id="ped167" depart="242.30" type="ped_pedestrian">
        <walk from="-1027004110#7" to="253335363#0"/>
    </person>
    <person id="ped168" depart="243.75" type="ped_pedestrian">
        <walk from="-253335362#0" to="-765770414#1"/>
    </person>
    <person id="ped169" depart="245.20" type="ped_pedestrian">
        <walk from="-253337943#2" to="-676091384#8"/>
    </person>
    <person id="ped170" depart="246.65" type="ped_pedestrian">
        <walk from="295005123#4" to="-75641021#0"/>
    </person>
    <person id="ped171" depart="248.10" type="ped_pedestrian">
        <walk from="-295005123#2" to="-1038784017#3"/>
    </person>
    <person id="ped172" depart="249.56" type="ped_pedestrian">
        <walk from="-1027004110#3" to="1027007287#4"/>
    </person>
    <person id="ped173" depart="251.01" type="ped_pedestrian">
        <walk from="765770408" to="-253337931#2"/>
    </person>
    <person id="ped174" depart="252.46" type="ped_pedestrian">
        <walk from="-1027004110#4" to="-253337914#0"/>
    </person>
    <person id="ped175" depart="253.91" type="ped_pedestrian">
        <walk from="-253335355#1" to="253337917#0"/>
    </person>
    <person id="ped176" depart="255.36" type="ped_pedestrian">
        <walk from="1033814016#1" to="-26608458#0"/>
    </person>
    <person id="ped177" depart="256.81" type="ped_pedestrian">
        <walk from="-253337916#2" to="253335346"/>
    </person>
    <person id="ped178" depart="258.26" type="ped_pedestrian">
        <walk from="27381036#8" to="-253335349"/>
    </person>
    <person id="ped179" depart="259.71" type="ped_pedestrian">
        <walk from="-232960172#0" to="-1027004110#6"/>
    </person>
    <person id="ped180" depart="261.16" type="ped_pedestrian">
        <walk from="-676091384#11" to="253337924"/>
    </person>
    <person id="ped181" depart="262.61" type="ped_pedestrian">
        <walk from="253337944" to="-1038784017#0"/>
    </person>
    <person id="ped182" depart="264.06" type="ped_pedestrian">
        <walk from="253337929#1" to="253335355#1"/>
    </person>
    <person id="ped183" depart="265.52" type="ped_pedestrian">
        <walk from="709064358#1" to="232960157#0"/>
    </person>
    <person id="ped184" depart="266.97" type="ped_pedestrian">
        <walk from="-253335354#0" to="765770422#0"/>
    </person>
    <person id="ped185" depart="268.42" type="ped_pedestrian">
        <walk from="33774334#6" to="-709064358#1"/>
    </person>
    <person id="ped186" depart="269.87" type="ped_pedestrian">
        <walk from="1027004108" to="-709064040#3"/>
    </person>
    <person id="ped187" depart="271.32" type="ped_pedestrian">
        <walk from="709064358#0" to="676091384#3"/>
    </person>
    <person id="ped188" depart="272.77" type="ped_pedestrian">
        <walk from="-232960157#1" to="765770412#1"/>
    </person>
    <person id="ped189" depart="274.22" type="ped_pedestrian">
        <walk from="253335361" to="676091384#7"/>
    </person>
    <person id="ped190" depart="275.67" type="ped_pedestrian">
        <walk from="253337942" to="-75653774#4"/>
    </person>
    <person id="ped191" depart="277.12" type="ped_pedestrian">
        <walk from="27381036#10" to="765770414#1"/>
    </person>
    <person id="ped192" depart="278.57" type="ped_pedestrian">
        <walk from="-33774334#2" to="676091382#7"/>
    </person>
    <person id="ped193" depart="280.02" type="ped_pedestrian">
        <walk from="-75653774#4" to="27381036#1"/>
    </person>
    <person id="ped194" depart="281.48" type="ped_pedestrian">
        <walk from="-33774334#1" to="709064358#1"/>
    </person>
    <person id="ped195" depart="282.93" type="ped_pedestrian">
        <walk from="676091384#8" to="-1038784017#5"/>
    </person>
    <person id="ped196" depart="284.38" type="ped_pedestrian">
        <walk from="75640992#1" to="-27381036#8"/>
    </person>
    <person id="ped197" depart="285.83" type="ped_pedestrian">
        <walk from="-765770416" to="253335349"/>
    </person>
    <person id="ped198" depart="287.28" type="ped_pedestrian">
        <walk from="-75641021#0" to="-1027004113#0"/>
    </person>
    <person id="ped199" depart="288.73" type="ped_pedestrian">
        <walk from="709064358#1" to="-253337927#1"/>
    </person>
    <person id="ped200" depart="290.18" type="ped_pedestrian">
        <walk from="-253337943#2" to="676091382#1"/>
    </person>
    <person id="ped201" depart="291.63" type="ped_pedestrian">
        <walk from="-709064040#3" to="75640992#1"/>
    </person>
    <person id="ped202" depart="293.08" type="ped_pedestrian">
        <walk from="-1038784017#5" to="26608458#0"/>
    </person>
    <person id="ped203" depart="294.53" type="ped_pedestrian">
        <walk from="-930766187" to="295005123#3"/>
    </person>
    <person id="ped204" depart="295.98" type="ped_pedestrian">
        <walk from="253337929#1" to="253335363#2"/>
    </person>
    <person id="ped205" depart="297.43" type="ped_pedestrian">
        <walk from="-1041427056" to="-26608458#2"/>
    </person>
    <person id="ped206" depart="298.89" type="ped_pedestrian">
        <walk from="1027007287#0" to="-75641025#6"/>
    </person>
    <person id="ped207" depart="300.34" type="ped_pedestrian">
        <walk from="27381036#6" to="-676091389#0"/>
    </person>
    <person id="ped208" depart="301.79" type="ped_pedestrian">
        <walk from="-253337930" to="-253335353"/>
    </person>
    <person id="ped209" depart="303.24" type="ped_pedestrian">
        <walk from="1027007287#2" to="309070523#0"/>
    </person>
    <person id="ped210" depart="304.69" type="ped_pedestrian">
        <walk from="765770419#0" to="1027004111"/>
    </person>
    <person id="ped211" depart="306.14" type="ped_pedestrian">
        <walk from="-33774334#9" to="-116187649#1"/>
    </person>
    <person id="ped212" depart="307.59" type="ped_pedestrian">
        <walk from="-253337931#0" to="-27381036#1"/>
    </person>
    <person id="ped213" depart="309.04" type="ped_pedestrian">
        <walk from="-253337927#0" to="-1027004110#0"/>
    </person>
    <person id="ped214" depart="310.49" type="ped_pedestrian">
        <walk from="1027007287#1" to="-33774334#4"/>
    </person>
    <person id="ped215" depart="311.94" type="ped_pedestrian">
        <walk from="765770418" to="1029542936#3"/>
    </person>
    <person id="ped216" depart="313.39" type="ped_pedestrian">
        <walk from="253337931#1" to="-253335355#1"/>
    </person>
    <person id="ped217" depart="314.85" type="ped_pedestrian">
        <walk from="-253337928#0" to="-1029542936#0"/>
    </person>
    <person id="ped218" depart="316.30" type="ped_pedestrian">
        <walk from="75653778#0" to="-765770419#3"/>
    </person>
    <person id="ped219" depart="317.75" type="ped_pedestrian">
        <walk from="676091384#3" to="-75641021#2"/>
    </person>
    <person id="ped220" depart="319.20" type="ped_pedestrian">
        <walk from="-1034122132#2" to="253335359"/>
    </person>
    <person id="ped221" depart="320.65" type="ped_pedestrian">
        <walk from="-1029542936#2" to="-253337912#1"/>
    </person>
    <person id="ped222" depart="322.10" type="ped_pedestrian">
        <walk from="1033814016#0" to="-676091382#7"/>
    </person>
    <person id="ped223" depart="323.55" type="ped_pedestrian">
        <walk from="983731282#0" to="-253335353"/>
    </person>
    <person id="ped224" depart="325.00" type="ped_pedestrian">
        <walk from="1027004110#7" to="-765770411#0"/>
    </person>
    <person id="ped225" depart="326.45" type="ped_pedestrian">
        <walk from="-75658309#2" to="709064558"/>
    </person>
    <person id="ped226" depart="327.90" type="ped_pedestrian">
        <walk from="253335353" to="253335348"/>
    </person>
    <person id="ped227" depart="329.35" type="ped_pedestrian">
        <walk from="-253337943#0" to="-253337943#2"/>
    </person>
    <person id="ped228" depart="330.81" type="ped_pedestrian">