<?xml version="1.0" encoding="UTF-8"?>

<!-- generated on 2022-05-25 10:27:52 by Eclipse SUMO duarouter Version 1.12.0
<configuration xmlns:xsi="http://www.w3.org/2001/XMLSchema-instance" xsi:noNamespaceSchemaLocation="http://sumo.dlr.de/xsd/duarouterConfiguration.xsd">

    <input>
        <net-file value="/Users/ahmadsyed/2022-05-25-10-27-48/osm.net.xml"/>
        <route-files value="/Users/ahmadsyed/2022-05-25-10-27-48/osm.pedestrian.trips.xml"/>
    </input>

    <output>
        <output-file value="/Users/ahmadsyed/2022-05-25-10-27-48/osm.pedestrian.rou.xml"/>
        <alternatives-output value="/Users/ahmadsyed/2022-05-25-10-27-48/osm.pedestrian.rou.alt.xml"/>
    </output>

    <time>
        <begin value="0"/>
        <end value="3600"/>
    </time>

    <report>
        <no-warnings value="true"/>
        <ignore-errors value="true"/>
        <no-step-log value="true"/>
    </report>

</configuration>
-->

<routes xmlns:xsi="http://www.w3.org/2001/XMLSchema-instance" xsi:noNamespaceSchemaLocation="http://sumo.dlr.de/xsd/routes_file.xsd">
    <vType id="ped_pedestrian" vClass="pedestrian"/>
    <person id="ped0" type="ped_pedestrian" depart="0.00">
        <walk edges="253335362#1 -253335362#0 27381036#1 -27381036#0 -1029542936#5 -1029542936#4 -1029542936#3 -1029542936#2 -1029542936#1 -1029542936#0 983731282#0 983731282#1 -1027004107 -1027004108 -1027004109#1 -1027004109#0 -1027004110#7 -1027004110#6"/>
           <ride busStop="bs_11" intended="bus10" lines="bus10"  depart="398.00"/>   <!--bus stop=> the stop pedestrian walks to ride on bus here intended is the bus passenger is going to ride 
                                                                        if missed in  case passenegr will take the alternative bus mentioned in lines argument-->
    </person>
    <person id="ped1" type="ped_pedestrian" depart="1.45">
         <walk edges="-33774334#2 33774334#1" busStop="bs_11"/>
         <ride busStop="bs_11" intended="bus16" lines="bus23"  depart="160.00"/>    <!--bus stop=> the stop pedestrian walks to ride on bus here intended is the bus passenger is going to ride 
                                                                                     if missed in  case passenegr will take the alternative bus mentioned in lines argument--> 
    </person>

    <person id="ped3" type="ped_pedestrian" depart="4.35">
        <walk edges="-75641025#4 75641025#5 75641025#6 -26608458#0 -75641021#18 -75641021#17 -75641021#16 -75641021#15 -75641021#14 -75641021#13 -75641021#12 -75641021#11 -75641021#10 -75641021#9 -75641021#8 -75641021#7 -75641021#6 -75641021#5 -75641021#4 -75641021#3 -75641021#2 -75641021#1 -75641021#0 986731403 -986731404 1027004113#2 -1027004113#1"/>
    </person>
    <person id="ped4" type="ped_pedestrian" depart="5.80">
        <walk edges="-26608458#1 -26608458#0 -75641021#18 -75641021#17 -75641021#16 -75641021#15 -75641021#14 -75641021#13 -75641021#12 -75641021#11 -75641021#10 -75641021#9 -75641021#8 -75641021#7 -75641021#6 -75641021#5 -75641021#4 -75641021#3 -75641021#2 -75641021#1 -75641021#0 -986731403 33774334#1 33774334#2 33774334#3 33774334#4 33774334#5 33774334#6 33774334#7 33774334#8 33774334#9 1027004111 1027004110#1 1027004110#2 1027004110#3 1027004110#4 1027004110#5 1027004110#6 1027004110#7 1027004109#0 1027004109#1 1027004108"/>
    </person>
    <person id="ped5" type="ped_pedestrian" depart="7.25">
        <walk edges="-33774334#2 33774334#1" busStop="bs_11"/>
         <ride busStop="bs_11" intended="bus16" lines="bus23"  depart="160.00"/>    <!--bus stop=> the stop pedestrian walks to ride on bus here intended is the bus passenger is going to ride 
                                                                                     if missed in  case passenegr will take the alternative bus mentioned in lines argument--> 
    </person>
    <person id="ped6" type="ped_pedestrian" depart="8.71"><!--depart here is the time in simualtion the person departs form the location-->
         <walk edges="-33774334#2 33774334#1" busStop="bs_11"/>
        <ride busStop="bs_11" intended="bus10" lines="bus23"  depart="385.00"/></person><!--bus stop=> the stop pedestrian walks to ride on bus here intended is the bus passenger is going to ride 
                                                                                     if missed in  case passenegr will take the alternative bus mentioned in lines argument--> 
    <person id="ped7" type="ped_pedestrian" depart="10.16">
        <walk edges="-26608458#2 -26608458#1 -26608458#0 -75641021#18 -75641021#17 -75641021#16 -75641021#15 -75641021#14 -75641021#13 -75641021#12 -75641021#11 -75641021#10 -75641021#9 -75641021#8 -75641021#7 -75641021#6 -75641021#5 -75641021#4 -75641021#3 -75641021#2 -75641021#1 -75641021#0 -986731403 33774334#1 33774334#2 33774334#3 33774334#4 33774334#5 33774334#6 33774334#7 33774334#8 33774334#9 1027004111 -1027004110#1 -1027004110#2 -1027004110#3 -1027004110#4 -1027004110#5 -1027004110#6 -1027004110#7 -1027004109#0 1041426282"/>
    </person>
    <person id="ped8" type="ped_pedestrian" depart="11.61">
        <walk edges="676091382#7 75641025#0 -75641025#1 -75641025#2 -75641025#3 75641025#4 75641025#5 75641025#6 -26608458#0 -75641021#18 -75641021#17 -75641021#16 -75641021#15 -75641021#14 -75641021#13 -75641021#12 -75641021#11 -75641021#10 -75641021#9 -75641021#8 -75641021#7 -75641021#6 -75641021#5 -75641021#4 -75641021#3 -75641021#2 -75641021#1 -75641021#0 -986731403 33774334#1 33774334#2 33774334#3 33774334#4 33774334#5 33774334#6 33774334#7 33774334#8 33774334#9 1027004111 -1027004110#1 -1027004110#2 -1027004110#3 -1027004110#4 -1027004110#5 -1027004110#6 -1027004110#7 -1027004109#0 -1027004109#1 -1027004108 -1027004107"/>
    </person>
    <person id="ped9" type="ped_pedestrian" depart="13.06">
        <walk edges="-709064040#3 -709064040#2 75653774#0 75653774#1 75653774#2 75653774#3 75653774#4 676091382#0 -676091382#1 -676091382#2 -676091382#3 -676091382#4 -676091382#5 -676091382#6 -676091382#7 -75641025#0 -75641025#1 -75641025#2 -75641025#3 75641025#4 75641025#5 75641025#6 -26608458#0 -75641021#18 -75641021#17 -75641021#16 -75641021#15 -75641021#14 -75641021#13 -75641021#12 -75641021#11 -75641021#10 -75641021#9 -75641021#8 -75641021#7 -75641021#6 -75641021#5 -75641021#4 -75641021#3 -75641021#2 -75641021#1 -75641021#0 -986731403 33774334#1 33774334#2 33774334#3 33774334#4 33774334#5 33774334#6 33774334#7 33774334#8 33774334#9 1027004111 -1027004110#1 -1027004110#2 -1027004110#3 -1027004110#4 -1027004110#5 -1027004110#6 -1027004110#7 -1027004109#0 -1027004109#1 -1027004108 -1027004107 983731282#1 983731282#0 -1029542936#0 -1029542936#1 -1029542936#2 -1029542936#3 -1029542936#4 -1029542936#5 -27381036#0 27381036#1 -27381036#2 -27381036#3 -27381036#4 -253337914#0 -253337914#2"/>
    </person>
    <person id="ped10" type="ped_pedestrian" depart="14.51">
        <walk edges="-33774334#2 33774334#1" busStop="bs_11"/>
        <ride busStop="bs_11" intended="bus10" lines="bus23"  depart="385.00"/></person><!--bus stop=> the stop pedestrian walks to ride on bus here intended is the bus passenger is going to ride 
                                                                                     if missed in  case passenegr will take the alternative bus mentioned in lines argument--> 
    <person id="ped11" type="ped_pedestrian" depart="15.96">
        <walk edges="-1041427056 1041427057 232960157#1 1026068296#2 -1026068296#1 -1029541256#0 -1046188457"/>
    </person>   
    <person id="ped12" type="ped_pedestrian" depart="17.41">
        <walk edges="-1045342804 33774334#7 33774334#6" busStop="bs_8"/><!--walk edges are defining the routes for the pedestrian trips ans bus stop id indicates to stop on bus stop -->
         <ride busStop="bs_8" intended="bus2" lines="bus17" depart="180.00"/></person>
    
    <person id="ped13" type="ped_pedestrian" depart="18.86">
        <walk edges="676091382#6 676091382#7 75641025#0 -75641025#1 -75641025#2 -75641025#3 75641025#4 75641025#5 75641025#6 -26608458#0 -75641021#18 -75641021#17 -75641021#16 -75641021#15 -75641021#14 -75641021#13 -75641021#12 -75641021#11 -75641021#10 -75641021#9 -75641021#8 -75641021#7 -75641021#6 -75641021#5 -75641021#4 -75641021#3 -75641021#2 -75641021#1 -75641021#0 -986731403 33774334#1 33774334#2 33774334#3 33774334#4 33774334#5 33774334#6 33774334#7 33774334#8 33774334#9 1027004111 -1027004110#1 -1027004110#2 -1027004110#3 -1027004110#4 -1027004110#5 -1027004110#6 -1027004110#7 -1027004109#0 -1027004109#1 -1027004108 -1027004107 983731282#1 983731282#0 -1029542936#0 -1029542936#1 -1029542936#2 -1029542936#3 -1029542936#4 -1029542936#5 27381036#0"/>
    </person>
    <person id="ped16" type="ped_pedestrian" depart="23.21">
        <walk edges="-27381036#1 -27381036#0 -1029542936#5 -1029542936#4 -1029542936#3 -1029542936#2 -1029542936#1 -1029542936#0 983731282#0 983731282#1 -1027004107 -1027004108 -1027004109#1 -1027004109#0 -1027004110#7 -1027004110#6 -1027004110#5 -1027004110#4 -1027004110#3 -1027004110#2 -1027004110#1 1027004111 33774334#9 33774334#8 33774334#7 33774334#6 33774334#5 33774334#4 33774334#3 33774334#2 33774334#1 -986731403 -75641021#0 -75641021#1 -75641021#2 -75641021#3 -75641021#4 -75641021#5 -75641021#6 -75641021#7 -75641021#8 -75641021#9 -75641021#10 -75641021#11 -75641021#12 -75641021#13 -75641021#14 -75641021#15 -75641021#16 -75641021#17 -75641021#18 -26608458#0 75641025#6 -639202040"/>
    </person>
    <person id="ped17" type="ped_pedestrian" depart="24.67">
        <walk edges="-1045342804 33774334#7 33774334#6" busStop="bs_8"/><!--walk edges are defining the routes for the pedestrian trips ans bus stop id indicates to stop on bus stop -->
         <ride busStop="bs_8" intended="bus2" lines="bus17" depart="195.00"/></person>

    <person id="ped18" type="ped_pedestrian" depart="26.12">
        <walk edges="-116187649#1 1029542937 983731282#0 983731282#1 -1027004107 -1027004108 -1027004109#1 -1027004109#0 -1027004110#7 -1027004110#6 -1027004110#5 -1027004110#4 -1027004110#3 -1027004110#2 -1027004110#1 -1027004110#0 -33774334#9 -33774334#8 1038784017#3 -33774334#6"/>
    </person>
    <person id="ped20" type="ped_pedestrian" depart="29.02">
        <walk edges="-1045342804 33774334#7 33774334#6" busStop="bs_8"/>
         <ride busStop="bs_8" intended="bus2" lines="bus17" depart="195.00"/></person><!--bus stop=> the stop pedestrian walks to ride on bus here intended is the bus passenger is going to ride 
                                                                                     if missed in  case passenegr will take the alternative bus mentioned in lines argument--> 

    <person id="ped21" type="ped_pedestrian" depart="30.47">
         <walk edges="-33774334#2 33774334#1" busStop="bs_11"/>
        <ride busStop="bs_11" intended="bus10" lines="bus23"  depart="385.00"/>  
    </person>
    <person id="ped23" type="ped_pedestrian" depart="33.37">
        <walk edges="709064040#1 -709064040#1 -75653774#0 -75653774#1 -75653774#2 -75653774#3 -75653774#4 -676091382#0 -676091382#1 -676091382#2 -676091382#3 -676091382#4 -676091382#5 -676091382#6 -676091382#7 -75641025#0 -75641025#1 -75641025#2 -75641025#3 75641025#4 75641025#5 75641025#6 -26608458#0 -75641021#18 -75641021#17 -75641021#16 -75641021#15 -75641021#14 -75641021#13 -75641021#12 -75641021#11 -75641021#10 -75641021#9 -75641021#8 -75641021#7 -75641021#6 -75641021#5 -75641021#4 -75641021#3 -75641021#2 -75641021#1 -75641021#0 -986731403 33774334#1 33774334#2"/>
    </person>
    <person id="ped24" type="ped_pedestrian" depart="34.82">
        <walk edges="-1045342804 33774334#7 33774334#6" busStop="bs_8"/>
         <ride busStop="bs_8" intended="bus2" lines="bus17" depart="195.00"/></person><!--bus stop=> the stop pedestrian walks to ride on bus here intended is the bus passenger is going to ride 
                                                                                     if missed in  case passenegr will take the alternative bus mentioned in lines argument--> 

    <person id="ped26" type="ped_pedestrian" depart="37.72">
        <walk edges="253337914#1 -253337914#0 -27381036#4 -27381036#3 -27381036#2 27381036#1 -27381036#0 -1029542936#5 -1029542936#4 -1029542936#3 -1029542936#2 -1029542936#1 -1029542936#0 983731282#0 983731282#1 -1027004107 -1027004108 -1027004109#1 -1027004109#0 -1027004110#7 -1027004110#6 -1027004110#5 -1027004110#4 -1027004110#3 -1027004110#2 -1027004110#1 1027004111 33774334#9 33774334#8 33774334#7 33774334#6 33774334#5 33774334#4 33774334#3 33774334#2 33774334#1 -986731403 -75641021#0 -75641021#1 -75641021#2 -75641021#3 -75641021#4 -75641021#5 -75641021#6 -75641021#7 -75641021#8 -75641021#9 -75641021#10 -75641021#11 -75641021#12 -75641021#13 -75641021#14 -75641021#15 -75641021#16 -75641021#17"/>
    </person>
    <person id="ped27" type="ped_pedestrian" depart="39.17">
        <walk edges="-309070523#4 -309070523#5 -1033814016#0 -28743486"/>
    </person>
    <person id="ped28" type="ped_pedestrian" depart="40.63">
        <walk edges="-1045342804 33774334#7 33774334#6" busStop="bs_8"/>
         <ride busStop="bs_8" intended="bus17" lines="bus21" depart="195.00"/></person>

    <person id="ped29" type="ped_pedestrian" depart="42.08">
        <walk edges="-1045342804 33774334#7 33774334#6" busStop="bs_8"/><!--walk edges are defining the routes for the pedestrian trips ans bus stop id indicates to stop on bus stop -->
         <ride busStop="bs_8" intended="bus17" lines="bus21" depart="195.00"/></person>


    <person id="ped30" type="ped_pedestrian" depart="43.53">
        <walk edges="-1045342804 33774334#7 33774334#6" busStop="bs_8"/><!--walk edges are defining the routes for the pedestrian trips ans bus stop id indicates to stop on bus stop -->
         <ride busStop="bs_8" intended="bus17" lines="bus21" depart="195.00"/></person>
     <person id="ped32" type="ped_pedestrian" depart="46.43">
         <walk edges="-1045342804 33774334#7 33774334#6" busStop="bs_8"/><!--walk edges are defining the routes for the pedestrian trips -->
         <ride busStop="bs_8" intended="bus17" lines="bus21" depart="195.00"/></person><!--bus stop=> the stop pedestrian walks to ride on bus here intended is the bus passenger is going to ride 
                                                                                     if missed in  case passenegr will take the alternative bus mentioned in lines argument--> 

    <person id="ped33" type="ped_pedestrian" depart="47.88">
         <walk edges="-1045342804 33774334#7 33774334#6" busStop="bs_8"/><!--walk edges are defining the routes for the pedestrian trips -->
         <ride busStop="bs_8" intended="bus17" lines="bus21" depart="195.00"/></person>

    <person id="ped34" type="ped_pedestrian" depart="49.33">
        <walk edges="-765770412#0 765770411#0"/>
    </person>
    <person id="ped38" type="ped_pedestrian" depart="55.13">
         <walk edges="-33774334#2 33774334#1" busStop="bs_11"/><!--walk edges are defining the routes for the pedestrian trips -->
        <ride busStop="bs_11" intended="bus10" lines="bus23"  depart="385.00"/>   <!--bus stop=> the stop pedestrian walks to ride on bus here intended is the bus passenger is going to ride 
                                                                                     if missed in  case passenegr will take the alternative bus mentioned in lines argument--> 
    </person>
    <person id="ped40" type="ped_pedestrian" depart="58.04">
        <walk edges="309070523#0 -1027007287#5 1027007287#4"/>
    </person>
    <person id="ped41" type="ped_pedestrian" depart="59.49">
        <walk edges="33774334#4 33774334#3 33774334#2 33774334#1 -986731404 1027004113#2"/><!--walk edges are defining the routes for the pedestrian trips -->
    </person>
    <person id="ped42" type="ped_pedestrian" depart="60.94">
        <walk edges="-1026068296#1 1026068296#2 232960157#1 232960157#0 1027004107 1027004108 1027004109#1 1027004109#0 1027004110#7 1027004110#6 1027004110#5 1027004110#4 1027004110#3 1027004110#2 1027004110#1 1027004111 33774334#9 33774334#8 33774334#7 33774334#6 33774334#5 33774334#4 33774334#3 33774334#2 33774334#1 -986731403 -75641021#0 -75641021#1 -75641021#2 -75641021#3 -75641021#4 -75641021#5 -75641021#6 -75641021#7 -75641021#8 -75641021#9 -75641021#10 -75641021#11 -75641021#12 -75641021#13 -75641021#14 -75641021#15 -75641021#16 -75641021#17 -676091384#0 -676091384#1 -676091384#2 -676091384#3 -676091384#4 -676091384#5 -676091384#6 -676091384#7"/>
    </person>
    <person id="ped43" type="ped_pedestrian" depart="62.39"><!--walk edges are defining the routes for the pedestrian trips -->
        <walk edges="-1027004110#3 -1027004110#2 -1027004110#1 1027004111 33774334#9 33774334#8 33774334#7 33774334#6 33774334#5 33774334#4 33774334#3 33774334#2 33774334#1 -986731403 -75641021#0 -75641021#1 -75641021#2 -75641021#3 -75641021#4 -75641021#5 -75641021#6 -75641021#7 -75641021#8 -75641021#9 -75641021#10 -75641021#11 -75641021#12 -75641021#13 -75641021#14 -75641021#15 -75641021#16 -75641021#17 -75641021#18 -26608458#0 75641025#6 75641025#5"/>
    </person>
    <person id="ped44" type="ped_pedestrian" depart="63.84"><!--walk edges are defining the routes for the pedestrian trips -->
        <walk edges="75640992#0 -676091382#0 -676091382#1 -676091382#2 -676091382#3 -676091382#4 -676091382#5 -676091382#6 -676091382#7 -75641025#0 -75641025#1 -75641025#2 -75641025#3 75641025#4 75641025#5 -639202040 676091384#1 -676091384#2 -676091384#3 -676091384#4 -676091384#5 -676091384#6 -676091384#7 676091384#8"/>
    </person>
    <person id="ped45" type="ped_pedestrian" depart="65.29"><!--walk edges are defining the routes for the pedestrian trips -->
        <walk edges="-676091384#1 -676091384#0 -75641021#17 -75641021#16 -75641021#15 -75641021#14 -75641021#13 -75641021#12 -75641021#11 -75641021#10 -75641021#9 -75641021#8 -75641021#7 -75641021#6 -75641021#5 -75641021#4 -75641021#3 -75641021#2 -75641021#1 -75641021#0 -986731403 33774334#1 33774334#2 33774334#3 33774334#4 33774334#5 33774334#6 33774334#7 33774334#8 33774334#9 1027004111 -1027004110#1 -1027004110#2 -1027004110#3 -1027004110#4 -1027004110#5 -1027004110#6 -1027004110#7 -1027004109#0 -1027004109#1 -1027004108 -1027004107 983731282#1 983731282#0 -1029542936#0 -1029542936#1 -1029542936#2 -1029542936#3 -1029542936#4"/>
    </person>
    <person id="ped46" type="ped_pedestrian" depart="66.74"><!--walk edges are defining the routes for the pedestrian trips -->
        <walk edges="75640992#0 -676091382#0 -676091382#1 -676091382#2 -676091382#3 -676091382#4 -676091382#5 -676091382#6 -676091382#7 -75641025#0 -75641025#1 -75641025#2 -75641025#3 75641025#4 75641025#5 75641025#6 -26608458#0 -75641021#18 -75641021#17 -75641021#16 -75641021#15 -75641021#14 -75641021#13 -75641021#12 -75641021#11 -75641021#10 -75641021#9 -75641021#8 -75641021#7 -75641021#6 -75641021#5 -75641021#4 -75641021#3 -75641021#2 -75641021#1 -75641021#0 986731403 -986731404 1027004113#2 -1027004113#1 1027004113#0 -309070523#3 -309070523#4 -309070523#5 -75658309#1 75658309#2"/>
    </person>
    <person id="ped47" type="ped_pedestrian" depart="68.19"><!--walk edges are defining the routes for the pedestrian trips -->
        <walk edges="-1033814016#2 -1033814016#3 1027004113#0 -1027004113#1 1027004113#2 -295005123#0 -295005123#1 -1027007287#3 1027007287#2 -1027007287#1 295005123#4"/>
    </person>
    <person id="ped48" type="ped_pedestrian" depart="69.64"><!--walk edges are defining the routes for the pedestrian trips -->
        <walk edges="-765770419#2 -765770419#1 -765770419#0 -765770421 1029542936#1"/>
    </person>
    <person id="ped51" type="ped_pedestrian" depart="74.00">
         <walk edges="-33774334#2 33774334#1" busStop="bs_11"/> <!--the depart time in first tag is for the person departing from the initial location and the second one in ride tag is the time to ride on bus-->
        <ride busStop="bs_11" intended="bus10" lines="bus23"  depart="385.00"/><!--bus stop=> the stop pedestrian walks to ride on bus here intended is the bus passenger is going to ride 
                                                                                     if missed in  case passenegr will take the alternative bus mentioned in lines argument--> 
    </person>
    <person id="ped52" type="ped_pedestrian" depart="75.45">
        <walk edges="-75653778#2 -709064040#1 -75653774#0 -75653774#1 -75653774#2 -75653774#3 -75653774#4 -676091382#0 -676091382#1 -676091382#2 -676091382#3 -676091382#4 -676091382#5 -676091382#6 -676091382#7 -75641025#0 -75641025#1 -75641025#2 -75641025#3 75641025#4 75641025#5 75641025#6 -26608458#0 -75641021#18 -75641021#17 -75641021#16 -75641021#15 -75641021#14 -75641021#13 -75641021#12 -75641021#11 -75641021#10 -75641021#9 -75641021#8 -75641021#7 -75641021#6 -75641021#5 -75641021#4 -75641021#3 -75641021#2 -75641021#1 -75641021#0 -986731403 33774334#1 33774334#2 33774334#3 33774334#4 33774334#5 33774334#6 33774334#7 33774334#8 33774334#9 1027004111 1027004110#1 1027004110#2 1027004110#3 1027004110#4 1027004110#5"/>
    </person>
    <person id="ped53" type="ped_pedestrian" depart="76.90">
        <walk edges="-709064040#1 -75653774#0 -75653774#1 -75653774#2 -75653774#3 -75653774#4 -676091382#0 -676091382#1 -676091382#2 -676091382#3 -676091382#4 -676091382#5 -676091382#6 -676091382#7 -75641025#0 -75641025#1 -75641025#2 -75641025#3 75641025#4 75641025#5 75641025#6 -26608458#0 -75641021#18 -75641021#17 -75641021#16 -75641021#15 -75641021#14 -75641021#13 -75641021#12 -75641021#11 -75641021#10 -75641021#9 -75641021#8 -75641021#7 -75641021#6 -75641021#5 -75641021#4 -75641021#3 -75641021#2 -75641021#1 -75641021#0 -986731403 33774334#1 33774334#2 33774334#3 33774334#4 33774334#5 33774334#6 33774334#7 33774334#8 33774334#9 1027004111 -1027004110#1 -1027004110#2 -1027004110#3 -1027004110#4 -1027004110#5 -1027004110#6 -1027004110#7 -1027004109#0 1041426282"/>
    </person>
    <person id="ped54" type="ped_pedestrian" depart="78.35">
        <walk edges="-1045342804 33774334#7 33774334#6" busStop="bs_8"/><!--walk edges are defining the routes for the pedestrian trips ans bus stop id indicates to stop on bus stop -->
         <ride busStop="bs_8" intended="bus2" lines="bus17" depart="195.00"/></person>
    <person id="ped56" type="ped_pedestrian" depart="81.25">
       <walk edges="-1045342804 33774334#7 33774334#6" busStop="bs_8"/><!--walk edges are defining the routes for the pedestrian trips ans bus stop id indicates to stop on bus stop -->
         <ride busStop="bs_8" intended="bus2" lines="bus17" depart="195.00"/></person>

    <person id="ped58" type="ped_pedestrian" depart="84.15">
       <walk edges="-1045342804 33774334#7 33774334#6" busStop="bs_8"/><!--walk edges are defining the routes for the pedestrian trips ans bus stop id indicates to stop on bus stop -->
         <ride busStop="bs_8" intended="bus2" lines="bus17" depart="195.00"/></person>
    <person id="ped59" type="ped_pedestrian" depart="85.60">
    <walk edges="-1045342804 33774334#7 33774334#6" busStop="bs_8"/><!--walk edges are defining the routes for the pedestrian trips ans bus stop id indicates to stop on bus stop -->
         <ride busStop="bs_8" intended="bus2" lines="bus17" depart="195.00"/></person>

    <person id="ped60" type="ped_pedestrian" depart="87.05">
        <walk edges="27381036#0 27381036#1 -27381036#2 -27381036#3 -27381036#4 27381036#5 -27381036#6 -27381036#8 -27381036#9 -253337917#0 253337918"/>
    </person>
    <person id="ped61" type="ped_pedestrian" depart="88.51">
        <walk edges="765770422#0 -765770422#1 -765770422#2 -765770421 -1029542936#2 -1029542936#3 -1029542936#4 -1029542936#5 -27381036#0 27381036#1 -27381036#2 -27381036#3 -27381036#4 27381036#5 -27381036#6 -116187649#0"/>
    </person>
    <person id="ped62" type="ped_pedestrian" depart="89.96">
        <walk edges="-1045342804 33774334#7 33774334#6" busStop="bs_8"/><!--walk edges are defining the routes for the pedestrian trips ans bus stop id indicates to stop on bus stop -->
         <ride busStop="bs_8" intended="bus2" lines="bus17" depart="195.00"/></person>

    <person id="ped63" type="ped_pedestrian" depart="91.41">
        <walk edges="-253337929#1 253337929#1 -765770422#0 -765770422#1 -765770412#0 -765770412#1 -765770410"/>
    </person>
    <person id="ped64" type="ped_pedestrian" depart="92.86">
        <walk edges="-75641025#4 75641025#5 75641025#6 -26608458#0 -75641021#18 -75641021#17 -75641021#16 -75641021#15 -75641021#14 -75641021#13 -75641021#12 -75641021#11 -75641021#10 -75641021#9 -75641021#8 -75641021#7 -75641021#6 -75641021#5 -75641021#4 -75641021#3 -75641021#2 -75641021#1 -75641021#0 -986731403 33774334#1 33774334#2 33774334#3 33774334#4 33774334#5 -33774334#6"/>
    </person>
    <person id="ped65" type="ped_pedestrian" depart="94.31">
        <walk edges="-1045342804 33774334#7 33774334#6" busStop="bs_8"/><!--walk edges are defining the routes for the pedestrian trips ans bus stop id indicates to stop on bus stop -->
         <ride busStop="bs_8" intended="bus2" lines="bus17" depart="195.00"/></person>

    <person id="ped67" type="ped_pedestrian" depart="97.21">
        <walk edges="1029542936#1 -1029542936#0"/>
    </person>
    <person id="ped68" type="ped_pedestrian" depart="98.66">
        <walk edges="-1045342804 33774334#7 33774334#6" busStop="bs_8"/><!--walk edges are defining the routes for the pedestrian trips ans bus stop id indicates to stop on bus stop -->
         <ride busStop="bs_8" intended="bus2" lines="bus17" depart="195.00"/></person>

    <person id="ped69" type="ped_pedestrian" depart="100.11">
        <walk edges="709064358#0 -75653774#4 -676091382#0 -676091382#1 -676091382#2 -676091382#3 -676091382#4 -676091382#5 -676091382#6 -676091382#7 -75641025#0 -75641025#1 -75641025#2 -75641025#3 75641025#4 75641025#5 75641025#6 -26608458#0 -75641021#18 -75641021#17 -75641021#16 -75641021#15 -75641021#14 -75641021#13 -75641021#12 -75641021#11 -75641021#10 -75641021#9 -75641021#8 -75641021#7 -75641021#6 -75641021#5 -75641021#4 -75641021#3 -75641021#2 -75641021#1 -75641021#0 -986731403 33774334#1 33774334#2 33774334#3 33774334#4 33774334#5 33774334#6 33774334#7 33774334#8 33774334#9 1027004111 -1027004110#1 -1027004110#2 -1027004110#3 -1027004110#4 -1027004110#5 -1027004110#6 -1027004110#7 -1027004109#0 -1027004109#1 -1027004108 -1027004107 983731282#1 983731282#0 1029542937 -116187649#1 -27381036#8 -253337916#0 -253337916#2 -253337916#1"/>
    </person>
    <person id="ped71" type="ped_pedestrian" depart="103.01">
        <walk edges="-1045342804 33774334#7 33774334#6" busStop="bs_8"/><!--walk edges are defining the routes for the pedestrian trips ans bus stop id indicates to stop on bus stop -->
         <ride busStop="bs_8" intended="bus2" lines="bus17" depart="195.00"/></person>
    <person id="ped72" type="ped_pedestrian" depart="104.46">
        <walk edges="-1045342804 33774334#7 33774334#6" busStop="bs_8"/><!--walk edges are defining the routes for the pedestrian trips ans bus stop id indicates to stop on bus stop -->
         <ride busStop="bs_8" intended="bus2" lines="bus17" depart="195.00"/></person>
    <person id="ped73" type="ped_pedestrian" depart="105.92">
        <walk edges="-1045342804 33774334#7 33774334#6" busStop="bs_8"/><!--walk edges are defining the routes for the pedestrian trips ans bus stop id indicates to stop on bus stop -->
         <ride busStop="bs_8" intended="bus2" lines="bus17" depart="195.00"/></person>

    <person id="ped74" type="ped_pedestrian" depart="107.37">
        <walk edges="1029541252 -1029541256#0 -27381036#11 -27381036#10 -27381036#9 27381036#8"/>
    </person>
    <person id="ped76" type="ped_pedestrian" depart="110.27">
        <walk edges="-253337915#0 27381036#5 -27381036#4 -27381036#3 -27381036#2 27381036#1 -27381036#0 -1029542936#5 -1029542936#4 -1029542936#3 -1029542936#2 -765770421 -765770422#2 -765770412#0 765770412#1"/>
    </person>
    <person id="ped79" type="ped_pedestrian" depart="114.62">
        <walk edges="75641021#11 -75641021#10 -75641021#9 -75641021#8 -75641021#7 -75641021#6 -75641021#5 -75641021#4 -75641021#3 -75641021#2 -75641021#1 -75641021#0 986731403 -986731404 1027004113#2 -1027004113#1 1027004113#0 -309070523#3 -309070523#4 -309070523#5 -1033814016#0 -28743486"/>
    </person>
    <person id="ped81" type="ped_pedestrian" depart="117.52">
        <walk edges="-75641025#2 -75641025#3 75641025#4 75641025#5 75641025#6 -26608458#0 -75641021#18 -75641021#17 -75641021#16 -75641021#15 -75641021#14 -75641021#13 -75641021#12 -75641021#11 -75641021#10 -75641021#9 -75641021#8 -75641021#7 -75641021#6 -75641021#5 -75641021#4 -75641021#3 -75641021#2 -75641021#1 -75641021#0 -986731403 33774334#1 33774334#2 33774334#3 -33774334#4 -33774334#5 1038784017#5"/>
    </person>
    <person id="ped82" type="ped_pedestrian" depart="118.97">
       <walk edges="-1045342804 33774334#7 33774334#6" busStop="bs_8"/><!--walk edges are defining the routes for the pedestrian trips ans bus stop id indicates to stop on bus stop -->
         <ride busStop="bs_8" intended="bus2" lines="bus17" depart="195.00"/></person>

    <person id="ped84" type="ped_pedestrian" depart="121.88">
        <walk edges="-27381036#5 -27381036#4 -27381036#3 -27381036#2 27381036#1 -27381036#0 -1029542936#5 -1029542936#4 -1029542936#3 -1029542936#2 -1029542936#1 -1029542936#0 983731282#0 983731282#1 -1027004107 -1027004108 -1027004109#1 -1027004109#0 -1027004110#7 -1027004110#6 -1027004110#5 -1027004110#4 -1027004110#3 -1027004110#2 -1027004110#1 1027004111 33774334#9 33774334#8 33774334#7 33774334#6 33774334#5 33774334#4 33774334#3 33774334#2 33774334#1 -986731403 -75641021#0 -75641021#1 -75641021#2 -75641021#3 -75641021#4 -75641021#5 -75641021#6 -75641021#7 -75641021#8 -75641021#9 -75641021#10 -75641021#11 -75641021#12 -75641021#13 -75641021#14 -75641021#15 -75641021#16 -75641021#17"/>
    </person>